Circuit: * C:\Users\lgiuliano\OneDrive - Escuela Tecnica Roberto Rocca\5° TEL\DASE\TP 3 - Análisis de alterna\Punto 2.asc

Direct Newton iteration for .op point succeeded.
.step r1=500
.step r1=1000
.step r1=1500
.step r1=2000

Date: Fri Aug 25 09:46:59 2023
Total elapsed time: 0.111 seconds.

tnom = 27
temp = 27
method = trap
totiter = 3
traniter = 0
tranpoints = 0
accept = 0
rejected = 0
matrix size = 3
fillins = 0
solver = Normal
Avg thread counts: 4.0/0.0/4.0/1.1
Matrix Compiler1:       5 opcodes
Matrix Compiler2: 163 bytes object code size
